22898828
  -OEChem-11030809412D

 14 13  0     0  0  0  0  0  0999 V2000
    6.8671   -0.2500    0.0000 C   0  5  0  0  0  0  0  0  0  0  0  0
    7.7331    0.2500    0.0000 C   0  5  0  0  0  0  0  0  0  0  0  0
    6.0010    0.2500    0.0000 C   0  5  0  0  0  0  0  0  0  0  0  0
    8.5991   -0.2500    0.0000 C   0  5  0  0  0  0  0  0  0  0  0  0
    5.1350   -0.2500    0.0000 C   0  5  0  0  0  0  0  0  0  0  0  0
    9.4651    0.2500    0.0000 C   0  5  0  0  0  0  0  0  0  0  0  0
    4.2690    0.2500    0.0000 C   0  5  0  0  0  0  0  0  0  0  0  0
   10.3312   -0.2500    0.0000 C   0  5  0  0  0  0  0  0  0  0  0  0
    3.4030   -0.2500    0.0000 C   0  5  0  0  0  0  0  0  0  0  0  0
   11.1972    0.2500    0.0000 C   0  5  0  0  0  0  0  0  0  0  0  0
    2.5369    0.2500    0.0000 C   0  5  0  0  0  0  0  0  0  0  0  0
   12.0632   -0.2500    0.0000 C   0  5  0  0  0  0  0  0  0  0  0  0
    2.0000   -0.0600    0.0000 H   0  0  0  0  0  0  0  0  0  0  0  0
   12.6002    0.0600    0.0000 H   0  0  0  0  0  0  0  0  0  0  0  0
  1  2  1  0  0  0  0
  1  3  2  0  0  0  0
  2  4  2  0  0  0  0
  3  5  1  0  0  0  0
  4  6  1  0  0  0  0
  5  7  2  0  0  0  0
  6  8  2  0  0  0  0
  7  9  1  0  0  0  0
  8 10  1  0  0  0  0
  9 11  2  0  0  0  0
 10 12  2  0  0  0  0
 11 13  1  0  0  0  0
 12 14  1  0  0  0  0
M  CHG  8   1  -1   2  -1   3  -1   4  -1   5  -1   6  -1   7  -1   8  -1
M  CHG  4   9  -1  10  -1  11  -1  12  -1
M  END
> <PUBCHEM_COMPOUND_CID>
22898828

> <PUBCHEM_COMPOUND_CANONICALIZED>
1

> <PUBCHEM_CACTVS_COMPLEXITY>
198

> <PUBCHEM_CACTVS_HBOND_ACCEPTOR>
12

> <PUBCHEM_CACTVS_HBOND_DONOR>
0

> <PUBCHEM_CACTVS_ROTATABLE_BOND>
5

> <PUBCHEM_CACTVS_SUBSKEYS>
AAADcQBwAAAAAAAAAAAAAAAAAAAAAAAAAAAAAAAAAAAAAAAAAAAAGAAAAAAACACAAAAAAAAAAACAAABCAAAAAAAAAAAACAAAAAAIAAAAAAAAAAAAAAAAgAAAAAAAAAAAAAAAAAAAAAAAAAAAAAAAAAAAAA==

> <PUBCHEM_IUPAC_OPENEYE_NAME>
dodeca-1,3,5,7,9,11-hexaene

> <PUBCHEM_IUPAC_CAS_NAME>
dodeca-1,3,5,7,9,11-hexaene

> <PUBCHEM_IUPAC_NAME>
dodeca-1,3,5,7,9,11-hexaene

> <PUBCHEM_IUPAC_SYSTEMATIC_NAME>
dodeca-1,3,5,7,9,11-hexaene

> <PUBCHEM_IUPAC_TRADITIONAL_NAME>
dodeca-1,3,5,7,9,11-hexaene

> <PUBCHEM_NIST_INCHI>
InChI=1/C12H2/c1-3-5-7-9-11-12-10-8-6-4-2/h1-2H/q-12

> <PUBCHEM_EXACT_MASS>
146.01565

> <PUBCHEM_MOLECULAR_FORMULA>
C12H2-12

> <PUBCHEM_MOLECULAR_WEIGHT>
146.14428

> <PUBCHEM_OPENEYE_CAN_SMILES>
[CH-]=[C-][C-]=[C-][C-]=[C-][C-]=[C-][C-]=[C-][C-]=[CH-]

> <PUBCHEM_OPENEYE_ISO_SMILES>
[CH-]=[C-][C-]=[C-][C-]=[C-][C-]=[C-][C-]=[C-][C-]=[CH-]

> <PUBCHEM_CACTVS_TPSA>
0

> <PUBCHEM_MONOISOTOPIC_WEIGHT>
146.01565

> <PUBCHEM_TOTAL_CHARGE>
-12

> <PUBCHEM_HEAVY_ATOM_COUNT>
12

> <PUBCHEM_ATOM_DEF_STEREO_COUNT>
0

> <PUBCHEM_ATOM_UDEF_STEREO_COUNT>
0

> <PUBCHEM_BOND_DEF_STEREO_COUNT>
0

> <PUBCHEM_BOND_UDEF_STEREO_COUNT>
0

> <PUBCHEM_ISOTOPIC_ATOM_COUNT>
0

> <PUBCHEM_COMPONENT_COUNT>
1

> <PUBCHEM_CACTVS_TAUTO_COUNT>
1

$$$$

