      54
 i =      894, E =      -443.7974481621
 Si        -2.2823640353       -0.3825141508       -1.8372490804
 Si        -3.2016138310        2.4942685676       -2.2660195906
 Si        -2.0953660510        4.0837017689        0.0978180194
 Si        -2.6729275753       -0.8533473189        1.3128845581
 Si        -2.4062355599        1.9847874889        2.3899139600
  O        -1.7529313150       -2.2021787724        1.5158909413
  O        -2.2220977084        1.1740095784       -2.3795342367
  O        -4.2454865246       -1.1709713668        1.6757233769
  O        -1.9749228690        2.6998778098        0.9755757612
  O        -4.5360589019        2.0931109748       -1.3888613801
  O        -2.1188366994        0.3662002032        2.2769591224
  O        -4.0175325102        2.2078741685        2.6395295738
  O        -3.4739621665       -1.2062831536       -2.6097559815
  O        -3.3037011081        5.0084012263        0.7110067121
  O        -0.8080557000       -1.0814512151       -2.0684371768
  O        -2.6101972241       -0.3494551912       -0.2384182158
  O        -0.6328676305        4.8409787900        0.1951160498
  O        -2.4069369251        3.6963915949       -1.4701748840
  O        -3.6318417833        2.9880234687       -3.7698757972
  O        -1.5630336902        2.6629760611        3.6250757314
  H        -4.1814356779        4.6168415047        0.7359033011
  H        -2.1027143717       -3.0061074422        1.1207452386
  H        -2.9123388095        3.0852042798       -4.4002471293
  H        -1.3659864874        3.6014726746        3.5537518046
  H        -4.8691807224       -0.4564586356        1.5151606752
  H        -5.3792180336        2.2738844431       -1.8139175769
  H        -4.2900716883        2.2203595828        3.5618790056
  H        -4.2823823684       -1.3527118649       -2.1110608729
 Si         0.7079386460       -0.7056390400       -1.5379916193
 Si         1.6484228228        2.2359460262       -1.9745806800
 Si         0.8837995223        4.1976917707        0.2666230775
 Si         1.5662102258       -0.2892155575        1.4163117147
 Si         1.9732843852        2.5604933827        2.6057160181
  O         3.1334344181       -0.3516642655        0.9224268397
  O         1.1993690041        0.6827672064       -2.2627810619
  O         1.2267949881       -1.4955125365        2.4789992424
  O         1.2531695809        3.8219891239        1.8261990716
  O         1.1928632081        3.1647317498       -3.2514149419
  O         1.2631667972        1.1560263183        2.1368487653
  O         1.8251315992        2.7008013525        4.2350068175
  O         1.7727441086       -1.9169620465       -1.8411919398
  O         0.6212803643       -0.4286718830        0.0792227631
  O         1.9792936066        5.2482714085       -0.3571195122
  O         0.8993249414        2.8119307921       -0.6245098741
  O         3.2702899980        2.2931668756       -1.7185228434
  O         3.5563469223        2.5199343828        2.1571802534
  H         3.6773917886        0.4189589664        1.1151088064
  H         2.7047767982       -1.6894199656       -1.7761923436
  H         1.6177640433        6.0916701953       -0.6458206803
  H         3.6627474503        3.1684318972       -1.6534931709
  H         4.1030746552        3.2272446578        2.5121182928
  H         0.3291373530       -1.8428175915        2.4218493557
  H         0.6146502574        2.7273953579       -3.8828813357
  H         1.1715544833        2.1148913474        4.6316050756
