      36
 i =     1000, E =      -283.8081145226
 Si        -2.3498678812       -1.5627475272        0.5277156759
 Si         2.4816460288        1.3494881676        0.4515723144
 Si         0.2531109106       -3.1664841612        0.3179671685
 Si         2.8937093235       -1.6214660306        0.0437286626
 Si         0.1193948809        3.1110060591       -0.1635859230
 Si        -2.4706426393        1.4888286490        0.2683961788
  O         0.0224414071        3.9081051801        1.2735550434
  O         4.0790245015        1.7238885750        0.4867715890
  O         4.2183476128       -1.9268791110       -0.8758214044
  O         1.7273716650       -2.7400584211       -0.2740211588
  O        -0.9100655363        1.8246774495       -0.1265766486
  O         3.2633785991       -1.6584814007        1.6477392377
  O        -2.6863935232        1.7415824984        1.8790797940
  O        -0.2988513757        4.1105386234       -1.3968653597
  O        -3.4742217034        2.4706346450       -0.5851199112
  O         0.3841133488       -3.4447923561        1.9337024526
  O         2.3042026901       -0.1149232438       -0.2884623892
  O        -2.4113958537       -1.4939197946        2.1713921102
  O        -3.3800921104       -2.7190114197       -0.0202704285
  O        -2.7698282621       -0.0930682183       -0.0819052834
  O        -0.8114536195       -1.9331507322        0.0673180574
  O         1.8472784690        1.2631398458        1.9707786814
  O         1.6462484834        2.5142354109       -0.3652074655
  O        -0.2868572419       -4.5216481612       -0.4346109271
  H        -3.0047605643       -2.1253201188        2.5887229269
  H        -2.1909095192        1.1809684181        2.4842059247
  H         0.4171276036        3.4697592383        2.0341656842
  H         2.2400648954        0.6037891713        2.5514797991
  H         3.1147908431       -2.4865899410        2.1142030700
  H        -0.0790797664       -4.2183712210        2.2668891720
  H         4.4215912235        2.1694282408       -0.2938031587
  H         4.0594755732       -2.0485795011       -1.8161288951
  H        -1.2400402101        4.2144598991       -1.5617003431
  H        -4.3586122623        2.5716489687       -0.2221352007
  H        -3.6670818535       -2.6237523838       -0.9335499417
  H        -0.0386921368       -4.6157332967       -1.3588771042
