10512667
  -OEChem-11100802262D

 24 26  0     1  0  0  0  0  0999 V2000
    2.6200    0.0247    0.0000 N   0  0  0  0  0  0  0  0  0  0  0  0
    5.5401   -0.0239    0.0000 N   0  0  0  0  0  0  0  0  0  0  0  0
    3.6615   -0.3561    0.0000 C   0  0  2  0  0  0  0  0  0  0  0  0
    4.5031    0.3578    0.0000 C   0  0  2  0  0  0  0  0  0  0  0  0
    3.6348    0.4154    0.0000 C   0  0  2  0  0  0  0  0  0  0  0  0
    4.5198   -0.4108    0.0000 C   0  0  2  0  0  0  0  0  0  0  0  0
    3.8423   -1.4433    0.0000 C   0  0  0  0  0  0  0  0  0  0  0  0
    4.3086    1.4433    0.0000 C   0  0  0  0  0  0  0  0  0  0  0  0
    3.7970    1.4395    0.0000 C   0  0  0  0  0  0  0  0  0  0  0  0
    4.3523   -1.4266    0.0000 C   0  0  0  0  0  0  0  0  0  0  0  0
    3.0987   -0.9247    0.0000 H   0  0  0  0  0  0  0  0  0  0  0  0
    5.0742    0.9180    0.0000 H   0  0  0  0  0  0  0  0  0  0  0  0
    3.0644    0.9764    0.0000 H   0  0  0  0  0  0  0  0  0  0  0  0
    5.0717   -0.9899    0.0000 H   0  0  0  0  0  0  0  0  0  0  0  0
    3.2268   -1.5180    0.0000 H   0  0  0  0  0  0  0  0  0  0  0  0
    3.8898   -2.0615    0.0000 H   0  0  0  0  0  0  0  0  0  0  0  0
    4.9241    1.5179    0.0000 H   0  0  0  0  0  0  0  0  0  0  0  0
    4.2689    2.0620    0.0000 H   0  0  0  0  0  0  0  0  0  0  0  0
    3.8264    2.0588    0.0000 H   0  0  0  0  0  0  0  0  0  0  0  0
    3.1802    1.5028    0.0000 H   0  0  0  0  0  0  0  0  0  0  0  0
    4.3320   -2.0463    0.0000 H   0  0  0  0  0  0  0  0  0  0  0  0
    4.9693   -1.4873    0.0000 H   0  0  0  0  0  0  0  0  0  0  0  0
    2.0000    0.0201    0.0000 H   0  0  0  0  0  0  0  0  0  0  0  0
    6.1601   -0.0250    0.0000 H   0  0  0  0  0  0  0  0  0  0  0  0
  1  3  1  0  0  0  0
  1  5  1  0  0  0  0
  1 23  1  0  0  0  0
  2  4  1  0  0  0  0
  2  6  1  0  0  0  0
  2 24  1  0  0  0  0
  3  4  1  0  0  0  0
  3  7  1  0  0  0  0
  3 11  1  1  0  0  0
  4  8  1  0  0  0  0
  4 12  1  1  0  0  0
  5  6  1  0  0  0  0
  5  9  1  0  0  0  0
  5 13  1  6  0  0  0
  6 10  1  0  0  0  0
  6 14  1  6  0  0  0
  7 10  1  0  0  0  0
  7 15  1  0  0  0  0
  7 16  1  0  0  0  0
  8  9  1  0  0  0  0
  8 17  1  0  0  0  0
  8 18  1  0  0  0  0
  9 19  1  0  0  0  0
  9 20  1  0  0  0  0
 10 21  1  0  0  0  0
 10 22  1  0  0  0  0
M  END
> <PUBCHEM_COMPOUND_ID_TYPE>
1

> <PUBCHEM_COMPOUND_CID>
10512667

> <PUBCHEM_COMPOUND_CANONICALIZED>
1

> <PUBCHEM_CACTVS_COMPLEXITY>
123

> <PUBCHEM_CACTVS_HBOND_ACCEPTOR>
2

> <PUBCHEM_CACTVS_HBOND_DONOR>
2

> <PUBCHEM_CACTVS_ROTATABLE_BOND>
0

> <PUBCHEM_CACTVS_SUBSKEYS>
AAADccBzAAAAAAAAAAAAAAAAAAAAAAAAAAAsWLFgAAAAAAAAAAAAHAAQAAAACCjBAAQAAALAAAAAAAAAAAAAAAAAAAAAAIAIAAAAQAIAgAAUAAAAEACAAAEQgIAAAAAAAAAAAAAAAAAAAAAAAAAAAAAAAA==

> <PUBCHEM_NIST_INCHI>
InChI=1/C8H14N2/c1-2-6-8-4-3-7(10-6)5(1)9-8/h5-10H,1-4H2/t5-,6-,7-,8-/m0/s1

> <PUBCHEM_CACTVS_XLOGP>
0.4

> <PUBCHEM_EXACT_MASS>
138.115698

> <PUBCHEM_MOLECULAR_FORMULA>
C8H14N2

> <PUBCHEM_MOLECULAR_WEIGHT>
138.21016

> <PUBCHEM_OPENEYE_CAN_SMILES>
C1CC2C3CCC(C1N3)N2

> <PUBCHEM_OPENEYE_ISO_SMILES>
C1C[C@H]2[C@@H]3CC[C@@H]([C@H]1N3)N2

> <PUBCHEM_CACTVS_TPSA>
24.1

> <PUBCHEM_MONOISOTOPIC_WEIGHT>
138.115698

> <PUBCHEM_TOTAL_CHARGE>
0

> <PUBCHEM_HEAVY_ATOM_COUNT>
10

> <PUBCHEM_ATOM_DEF_STEREO_COUNT>
4

> <PUBCHEM_ATOM_UDEF_STEREO_COUNT>
0

> <PUBCHEM_BOND_DEF_STEREO_COUNT>
0

> <PUBCHEM_BOND_UDEF_STEREO_COUNT>
0

> <PUBCHEM_ISOTOPIC_ATOM_COUNT>
0

> <PUBCHEM_COMPONENT_COUNT>
1

> <PUBCHEM_CACTVS_TAUTO_COUNT>
1

> <PUBCHEM_SUBSTANCE_ID>
41893280

> <PUBCHEM_SUBSTANCE_VERSION>
1

> <PUBCHEM_EXT_DATASOURCE_NAME>
ChemSpider

> <PUBCHEM_EXT_DATASOURCE_REGID>
8688068

> <PUBCHEM_XREF_EXT_ID>
8688068

> <PUBCHEM_EXT_DATASOURCE_URL>
http://www.chemspider.com

> <PUBCHEM_EXT_SUBSTANCE_URL>
http://www.chemspider.com/Chemical-Structure.8688068.html

> <PUBCHEM_CID_ASSOCIATIONS>
10512667  1

> <PUBCHEM_BONDANNOTATIONS>
3  11  5
4  12  5
5  13  6
6  14  6

$$$$

