      24
Energy -680.376747000
 O -0.557075759 -2.536865890 -0.000111999
 O  3.079299188  0.302344485  0.000241212
 N  1.003365560  1.282596153  0.000088822
 N -2.276812699  0.013557721 -0.000212010
 N  1.263026127 -1.092281581  0.000059803
 N -1.313342577  2.048656200 -0.000010141
 C -0.904336067 -0.185671170  0.000001793
 C -0.356635988  1.082049083  0.000012422
 C -0.124401173 -1.387430693  0.000236816
 C  1.862483508  0.182672920  0.000078213
 C -2.451044338  1.359321938 -0.000169731
 C  1.553248858  2.636987207  0.000161987
 C -3.305569039 -1.018434981 -0.000227147
 C  2.203073025 -2.218121856 -0.000066057
 H -3.438090564  1.802972160 -0.000271642
 H  1.215720913  3.177935227 -0.888464159
 H  2.637838590  2.548380558  0.000279081
 H  1.215523667  3.177916579  0.888723165
 H -4.282791445 -0.530959218 -0.001001790
 H -3.206723541 -1.650014076 -0.885833635
 H -3.207703138 -1.649122931  0.886134419
 H  1.612210079 -3.131924258 -0.000724691
 H  2.840455510 -2.172924222  0.886195237
 H  2.841204852 -2.172022780 -0.885724778
