    9
Energy -155.034287000
 C      1.216375    -0.239288    -0.021900
 C     -0.084654     0.555908     0.047166
 O     -1.240747    -0.260379    -0.109745
 H      1.277148    -0.792822    -0.964751
 H      2.086919     0.423750     0.050831
 H      1.280584    -0.962273     0.802113
 H     -0.129730     1.129804     0.987530
 H     -0.130150     1.279759    -0.773136
 H     -2.015905     0.317967    -0.036356
